34

C             7.0902270946        7.7678291468       10.5630842090
C             7.0564417080        9.1666081593       10.4571439333
C             8.2986061173        7.0917644009       10.6915427940
C             8.2406925163        9.8882774236       10.4796050046
C             9.4873572072        7.8243277186       10.7142883320
C             9.4794348463        9.2311528329       10.6080456257
O            10.6553417032        7.1255456528       10.8459047380
C            10.7459656298        9.9053583903       10.6393644189
C            11.9179714543        7.7611194290       10.8870720460
C            11.9022175193        9.2093598372       10.7688250853
H             6.1597806934        7.2005169134       10.5463019120
H             6.1022114154        9.6826337401       10.3596615862
H             8.3436637434        6.0070161941       10.7760980508
H             8.2294886375       10.9764635261       10.4006349776
H            10.7621461420       10.9943622866       10.5582316747
O            12.8948808875        7.0533310252       11.0178951957
H            12.8762856846        9.6931343230       10.7964151235
C             7.0902270946        7.7678291468        5.4368977910
C             7.0564417080        9.1666081593        5.5428600667
C             8.2986061173        7.0917644009        5.3084372060
C             8.2406925163        9.8882774236        5.5203869954
C             9.4873572072        7.8243277186        5.2857056680
C             9.4794348463        9.2311528329        5.3919463744
O            10.6553417032        7.1255456528        5.1540872620
C            10.7459656298        9.9053583903        5.3606195811
C            11.9179714543        7.7611194290        5.1129259540
C            11.9022175193        9.2093598372        5.2311549147
H             6.1597806934        7.2005169134        5.4536580880
H             6.1022114154        9.6826337401        5.6403884138
H             8.3436637434        6.0070161941        5.2238699492
H             8.2294886375       10.9764635261        5.5993450225
H            10.7621461420       10.9943622866        5.4417643253
O            12.8948808875        7.0533310252        4.9821528043
H            12.8762856846        9.6931343230        5.2035348766

