46 

Se          -12.4670611237       22.8474862321       14.9603631864
Se          -14.1098290413       25.5803914897       14.9533686039
Se          -15.7094663024       28.4698550195       14.9580152621
Se          -17.3434742581       31.2026950699       14.9552095418
Se           -8.6959504611       22.8463328094       14.9557217546
Se          -10.5793000740       25.6834069191       15.6750434133
Se          -12.2511713723       28.5221815447       15.4831358342
Se          -13.8969228696       31.4060174522       15.6747040375
Se          -15.4754125249       34.4471253832       14.9603894389
Se           -7.1135607667       25.5726444032       14.9538561177
Se           -8.8947859120       28.5309401232       15.4791280970
Se          -10.5737817727       31.4161372097       15.4767144413
Se          -12.2394516397       34.4508269089       14.9555980537
Se           -5.3765793442       28.4796966627       14.9411951332
Se           -7.2440452225       31.4126615225       15.6722002884
Se           -8.9125407160       34.4522944243       14.9576589474
Se           -3.8062861039       31.2114567691       14.9551709522
Se           -5.6798075895       34.5209002523       14.9548693022
Se          -12.5372008582       22.8553461875       12.6547844916
Se          -14.1122056662       25.5776354942       12.6859500339
Se          -15.7738984713       28.4707243749       12.6891895704
Se          -17.3445764445       31.2028105040       12.6514196341
Se           -8.6998133133       22.8515684481       12.6502050815
Se          -10.5802601722       25.6842699518       11.9257554820
Se          -12.2554661290       28.5128146095       12.1168105465
Se          -13.8995806110       31.4078827700       11.9261578178
Se          -15.4694270160       34.4456447707       12.6491354709
Se           -7.0424891268       25.5780863501       12.6845111604
Se           -8.8894116190       28.5241459230       12.1208646310
Se          -10.5733356511       31.4288492876       12.1220409488
Se          -12.2322713715       34.5181295948       12.6844499211
Se           -5.3748102045       28.4745296346       12.6701600581
Se           -7.2457966533       31.4118145162       11.9298985551
Se           -8.9226267090       34.5243476120       12.6897639124
Se           -3.8113446095       31.2112457682       12.6535378936
Se           -5.7728889203       34.5192844244       12.6497347990
W           -10.5973655526       24.0699717781       13.7968802401
W           -12.0344527281       26.6442074823       13.8050544614
W           -13.7660075970       29.6737013281       13.7978475262
W           -15.3076881706       32.2029702562       13.8033108651
W            -9.1371667599       26.6475898396       13.7998265583
W           -10.5779912507       29.4883559333       13.7979884164
W           -12.3314791041       32.1679937499       13.7997877991
W            -7.3639511076       29.6807899987       13.8023087399
W            -8.8155066874       32.1705903289       13.8013912723
W            -5.8415603928       32.2467488866       13.8000917025

