21
Properties=species:S:1:pos:R:3 pbc="F F F"
N        9.95123999      -0.99192299       4.24666212
N        7.52726231      -1.25326561       4.11088425
C       11.21614681      -1.20697821       4.40545579
C       11.98316309      -0.00944994       4.54433948
C       11.16302925       1.01922819       4.45209473
C        9.88954469       0.39874135       4.27471596
C        8.69399413       0.94482501       4.17774693
C        7.52726231       0.14895952       4.11088425
C        6.21618588       0.45362644       4.10255872
C        5.43848815      -0.71170433       4.09718395
C        6.28276578      -1.76077697       4.11088425
B        8.76776703      -2.03501459       4.02651131
F        8.84886784      -2.63180329       2.77191720
F        8.73133394      -3.03178044       5.00727241
H        8.70436646       1.87102510       4.25990098
H        6.03982198      -2.63837462       4.10682975
H       11.44986037       1.95390540       4.54396482
H       12.91184580       0.12170674       4.64872658
H        4.51253929      -0.84381269       4.10496562
H       11.47697741      -2.11083650       4.29951629
H        5.99192496       1.42233028       4.15886808
