8
XYZ file
Na     6.300000    6.000000    6.000000
Na     9.300000    6.000000    6.000000
Na    12.300000    6.000000    6.000000
Na    15.300000    6.000000    6.000000
Na    18.300000    6.000000    6.000000
Na    21.300000    6.000000    6.000000
Na    24.300000    6.000000    6.000000
Na    27.300000    6.000000    6.000000

